examples/casefiles/caseTurkish_paper.m
function mpc = caseTurkish_paper
%CASETURKISH_PAPER

%% MATPOWER Case Format : Version 2
mpc.version = '2';

%%-----  Power Flow Data  -----%%
%% system MVA base
mpc.baseMVA = 100;

%% bus data
%	bus_i	type	Pd	Qd	Gs	Bs	area	Vm	Va	baseKV	zone	Vmax	Vmin
mpc.bus = [
	1	3	758.07405	168.4608	0	0	1	1.015	0	345	1	1.06	0.94;
	2	1	0	0	0	0	1	0.99959	-3.0384	345	1	1.06	0.94;
	3	1	0	0	0	0	1	0.9986	-3.3479	345	1	1.06	0.94;
	4	1	0	0	0	0	1	0.98828	-4.081	345	1	1.06	0.94;
	5	1	0	0	0	0	1	0.99354	-3.2938	345	1	1.06	0.94;
	6	1	0	0	0	0	1	0.98613	-4.1776	345	1	1.06	0.94;
	7	1	0	0	0	0	1	0.99274	-3.4892	345	1	1.06	0.94;
	8	1	0	0	0	0	1	1.0375	1.0439	345	1	1.06	0.94;
	9	1	0	0	0	0	1	1.0112	3.2248	345	1	1.06	0.94;
	10	1	0	0	0	0	1	1.0185	5.1692	345	1	1.06	0.94;
	11	1	0	0	0	0	1	1.0063	3.4083	345	1	1.06	0.94;
	12	1	0	0	0	0	1	0.99229	-14.5298	345	1	1.06	0.94;
	13	1	0	0	0	0	1	0.98974	-8.9867	345	1	1.06	0.94;
	14	1	0	0	0	0	1	0.99946	-6.1963	345	1	1.06	0.94;
	15	1	0	0	0	0	1	1.0161	-4.1662	345	1	1.06	0.94;
	16	1	0	0	0	0	1	1.0045	-8.8076	345	1	1.06	0.94;
	17	1	0	0	0	0	1	1.0001	-2.2893	345	1	1.06	0.94;
	18	1	0	0	0	0	1	1.0137	-1.3478	345	1	1.06	0.94;
	19	1	0	0	0	0	1	1.002	1.3987	345	1	1.06	0.94;
	20	1	0	0	0	0	1	1.0058	-1.6989	345	1	1.06	0.94;
	21	1	0	0	0	0	1	1.0232	-0.64798	345	1	1.06	0.94;
	22	1	0	0	0	0	1	1.0052	-1.1839	345	1	1.06	0.94;
	23	1	0	0	0	0	1	1.0125	4.4696	345	1	1.06	0.94;
	24	1	0	0	0	0	1	0.99443	0.95642	345	1	1.06	0.94;
	25	1	0	0	0	0	1	1.0272	3.1932	345	1	1.06	0.94;
	26	1	0	0	0	0	1	1.0209	6.5875	345	1	1.06	0.94;
	27	1	0	0	0	0	1	1.0115	-6.8063	345	1	1.06	0.94;
	28	1	0	0	0	0	1	1.017	-6.9836	345	1	1.06	0.94;
	29	1	0	0	0	0	1	1.0246	-1.1787	345	1	1.06	0.94;
	30	1	0	0	0	0	1	0.99381	-2.3119	345	1	1.06	0.94;
	31	1	0	0	0	0	1	0.96379	-5.2821	345	1	1.06	0.94;
	32	1	0	0	0	0	1	1.0088	-0.24727	345	1	1.06	0.94;
	33	2	0	0	0	0	1	1.0129	3.3489	345	1	1.06	0.94;
	34	1	0	0	0	0	1	1.0109	2.5751	345	1	1.06	0.94;
	35	1	0	0	0	0	1	1.0885	-10.3928	345	1	1.06	0.94;
	36	2	510	136	0	0	1	1.01	-1.2578	345	1	1.06	0.94;
	37	2	693	184.8	0	0	1	1.02	5.907	345	1	1.06	0.94;
	38	2	678	180.8	0	0	1	1.03	-0.7999	345	1	1.06	0.94;
	39	2	0	0	0	0	1	1.02	0.98935	345	1	1.06	0.94;
	40	2	555	148	0	0	1	1.02	1.1259	345	1	1.06	0.94;
	41	1	0	0	0	0	1	1.02	0.98	345	1	1.06	0.94;
	42	2	514.5	137	0	0	1	1.01	1.8809	345	1	1.06	0.94;
	43	2	960	256	0	0	1	1.02	6.14	345	1	1.06	0.94;
	44	2	1903.5	607.5	0	0	1	1.02	5.363	345	1	1.06	0.94;
	45	1	330	88	0	0	1	1.01	5.8174	345	1	1.06	0.94;
	46	2	435	156	0	0	1	1.03	4.8946	345	1	1.06	0.94;
	47	2	495	132	0	0	1	1.03	5.5937	345	1	1.06	0.94;
	48	2	330	88	0	0	1	1.01	5.8174	345	1	1.06	0.94;
	49	2	375	100	0	0	1	1.02	-12.0221	345	1	1.06	0.94;
	50	2	0	0	0	0	1	1.01	-2.4417	345	1	1.06	0.94;
	51	2	435	116	0	0	1	1.0117	1.2016	345	1	1.06	0.94;
	52	2	250.5	-66.8	0	0	1	1.0011	0.68186	345	1	1.06	0.94;
	53	1	0	0	0	0	1	1.0111	-0.26222	345	1	1.06	0.94;
	54	2	2100	560	0	0	1	1.0111	1.3647	345	1	1.06	0.94;
	55	1	0	0	0	0	1	1.0112	-0.56532	345	1	1.06	0.94;
	56	2	474	126.4	0	0	1	1.02	-0.21608	345	1	1.06	0.94;
	57	2	1980	528	0	0	1	1.02	0.91455	345	1	1.06	0.94;
	58	2	1260	336	0	0	1	1.041	2.9342	345	1	1.06	0.94;
	59	2	0	0	0	0	1	1.0412	-0.46674	345	1	1.06	0.94;
	60	2	445.5	120	0	0	1	1.0111	5.1852	345	1	1.06	0.94;
	61	2	877.5	234	0	0	1	1.0112	7.8823	345	1	1.06	0.94;
];

%% generator data
%	bus	Pg	Qg	Qmax	Qmin	Vg	mBase	status	Pmax	Pmin	Pc1	Pc2	Qc1min	Qc1max	Qc2min	Qc2max	ramp_agc	ramp_10	ramp_30	ramp_q	apf
mpc.gen = [
	1	610	0	100	-100	1.06577018	100	1	732	0	0	0	0	0	0	0	0	0	0	0	0;
	33	1125	0	100	-100	1.01331278	100	1	1350	0	0	0	0	0	0	0	0	0	0	0	0;
	36	394	0	100	-100	0.898620994	100	1	472.8	0	0	0	0	0	0	0	0	0	0	0	0;
	37	262	0	100	-100	1.05089666	100	1	314.4	0	0	0	0	0	0	0	0	0	0	0	0;
	38	445	0	100	-100	1.1264501	100	1	534	0	0	0	0	0	0	0	0	0	0	0	0;
	39	9975	0	100	-100	0.984239497	100	1	11970	0	0	0	0	0	0	0	0	0	0	0	0;
	40	365	0	100	-100	0.910136875	100	1	438	0	0	0	0	0	0	0	0	0	0	0	0;
	42	156	0	100	-100	0.88820337	100	1	187.2	0	0	0	0	0	0	0	0	0	0	0	0;
	43	576	0	100	-100	0.87581166	100	1	691.2	0	0	0	0	0	0	0	0	0	0	0	0;
	44	1449	0	100	-100	1.03984553	100	1	1738.8	0	0	0	0	0	0	0	0	0	0	0	0;
	46	350	0	100	-100	1.03393931	100	1	420	0	0	0	0	0	0	0	0	0	0	0	0;
	47	297	0	100	-100	0.921642292	100	1	356.4	0	0	0	0	0	0	0	0	0	0	0	0;
	48	182	0	100	-100	1.07540285	100	1	218.4	0	0	0	0	0	0	0	0	0	0	0	0;
	49	250	0	100	-100	0.893441628	100	1	300	0	0	0	0	0	0	0	0	0	0	0	0;
	50	1032	0	100	-100	1.14873628	100	1	1238.4	0	0	0	0	0	0	0	0	0	0	0	0;
	51	262	0	100	-100	0.787226757	100	1	314.4	0	0	0	0	0	0	0	0	0	0	0	0;
	52	167	0	100	-100	0.972622556	100	1	200.4	0	0	0	0	0	0	0	0	0	0	0	0;
	54	1704	0	100	-100	1.07533096	100	1	2044.8	0	0	0	0	0	0	0	0	0	0	0	0;
	56	416	0	100	-100	1.00122751	100	1	499.2	0	0	0	0	0	0	0	0	0	0	0	0;
	57	1320	0	100	-100	1.00490701	100	1	1584	0	0	0	0	0	0	0	0	0	0	0	0;
	58	840	0	100	-100	0.949147978	100	1	1008	0	0	0	0	0	0	0	0	0	0	0	0;
	59	273	0	100	-100	1.19652575	100	1	327.6	0	0	0	0	0	0	0	0	0	0	0	0;
	60	200	0	100	-100	0.953966488	100	1	240	0	0	0	0	0	0	0	0	0	0	0	0;
	61	536.66	0	100	-100	1.06979982	100	1	643.992	0	0	0	0	0	0	0	0	0	0	0	0;
];

%% branch data
%	fbus	tbus	r	x	b	rateA	rateB	rateC	ratio	angle	status	angmin	angmax
mpc.branch = [
	1	4	0.000114183576	0.00163383298	0	750	0	0	0	0	1	-360	360;
	1	38	8.88106818e-05	0.00135974304	0	750	0	0	0	0	1	-360	360;
	2	3	9.92531232e-05	0.00110278373	0	750	0	0	0	0	1	-360	360;
	2	5	0.000110841195	0.00126552463	0	750	0	0	0	0	1	-360	360;
	2	38	9.98545044e-05	0.00126552463	0	750	0	0	0	0	1	-360	360;
	2	54	0.000106429255	0.00141970021	0	750	0	0	0	0	1	-360	360;
	3	4	8.38013076e-05	0.0010856531	0	750	0	0	0	0	1	-360	360;
	3	38	0.000103487475	0.00120556745	0	750	0	0	0	0	1	-360	360;
	3	39	0.000110834135	0.00108993576	0	750	0	0	0	0	1	-360	360;
	4	5	7.75988014e-05	0.00118415418	0	1000	0	0	0	0	1	-360	360;
	4	6	9.76435572e-05	0.00115845824	0	750	0	0	0	0	1	-360	360;
	5	6	8.74682872e-05	0.00108137045	0	750	0	0	0	0	1	-360	360;
	5	7	8.96980393e-05	0.00108137045	0	750	0	0	0	0	1	-360	360;
	5	54	0.000105928357	0.00144111349	0	1000	0	0	0	0	1	-360	360;
	6	7	0.000110902526	0.00112847966	0	500	0	0	0	0	1	-360	360;
	7	20	9.7905386e-05	0.00187794433	0	1000	0	0	0	0	1	-360	360;
	7	40	9.48077879e-05	0.00154817987	0	500	0	0	0	0	1	-360	360;
	7	53	0.000118022461	0.0013640257	0	500	0	0	0	0	1	-360	360;
	8	40	9.91387484e-05	0.00174089936	0	750	0	0	0	0	1	-360	360;
	8	43	0.000103806104	0.00182655246	0	750	0	0	0	0	1	-360	360;
	9	41	9.6520745e-05	0.00145824411	0	500	0	0	0	0	1	-360	360;
	9	43	0.000105073297	0.00126980728	0	500	0	0	0	0	1	-360	360;
	10	11	8.7778325e-05	0.00127837259	0	750	0	0	0	0	1	-360	360;
	10	43	0.000100215643	0.00112847966	0	500	0	0	0	0	1	-360	360;
	10	45	9.11429167e-05	0.00118843683	0	500	0	0	0	0	1	-360	360;
	10	44	9.80837718e-05	0.001	0	1000	0	0	0	0	1	-360	360;
	11	47	0.000106895146	0.00142826552	0	750	0	0	0	0	1	-360	360;
	12	34	0.00011959332	0.00174518201	0	750	0	0	0	0	1	-360	360;
	12	49	9.54795858e-05	0.00131691649	0	500	0	0	0	0	1	-360	360;
	13	14	0.000105332546	0.00128265525	0	500	0	0	0	0	1	-360	360;
	13	35	9.54294456e-05	0.00252890792	0	500	0	0	0	0	1	-360	360;
	14	15	0.000100894461	0.00130406852	0	500	0	0	0	0	1	-360	360;
	14	50	0.000127825861	0.00150535332	0	750	0	0	0	0	1	-360	360;
	15	59	0.000101813291	0.00125695931	0	500	0	0	0	0	1	-360	360;
	16	18	9.40305485e-05	0.00195931478	0	500	0	0	0	0	1	-360	360;
	16	35	0.000110022244	0.00140256959	0	500	0	0	0	0	1	-360	360;
	17	19	0.000109248121	0.00215203426	0	500	0	0	0	0	1	-360	360;
	17	20	8.47832053e-05	0.00113704497	0	500	0	0	0	0	1	-360	360;
	17	52	9.35991466e-05	0.00170663812	0	500	0	0	0	0	1	-360	360;
	18	57	9.55198479e-05	0.00235760171	0	1000	0	0	0	0	1	-360	360;
	19	33	9.74633332e-05	0.00215203426	0	500	0	0	0	0	1	-360	360;
	19	59	0.000101049093	0.00161670236	0	500	0	0	0	0	1	-360	360;
	20	18	9.43963825e-05	0.00225910064	0	1000	0	0	0	0	1	-360	360;
	20	25	0.000104334416	0.00224197002	0	750	0	0	0	0	1	-360	360;
	20	36	0.000104707564	0.0013254818	0	500	0	0	0	0	1	-360	360;
	20	54	9.15742955e-05	0.00192933619	0	1000	0	0	0	0	1	-360	360;
	20	55	0.00010375919	0.00172805139	0	500	0	0	0	0	1	-360	360;
	20	59	8.87814353e-05	0.003	0	750	0	0	0	0	1	-360	360;
	21	25	0.000108248896	0.00191648822	0	750	0	0	0	0	1	-360	360;
	21	55	9.78615324e-05	0.00187366167	0	750	0	0	0	0	1	-360	360;
	22	55	0.000107200252	0.0012012848	0	500	0	0	0	0	1	-360	360;
	23	25	9.00653175e-05	0.00153104925	0	500	0	0	0	0	1	-360	360;
	23	37	0.000107818648	0.00139828694	0	750	0	0	0	0	1	-360	360;
	23	60	9.72373281e-05	0.00107280514	0	500	0	0	0	0	1	-360	360;
	24	27	9.92735871e-05	0.00294004283	0	1000	0	0	0	0	1	-360	360;
	24	60	9.72827625e-05	0.00188222698	0	1000	0	0	0	0	1	-360	360;
	25	26	0.00010671241	0.00169807281	0	750	0	0	0	0	1	-360	360;
	25	37	0.000118027197	0.00143254818	0	500	0	0	0	0	1	-360	360;
	26	61	0.000108960985	0.00125267666	0	750	0	0	0	0	1	-360	360;
	27	28	0.000100294499	0.00141970021	0	750	0	0	0	0	1	-360	360;
	27	29	9.25242378e-05	0.00185653105	0	750	0	0	0	0	1	-360	360;
	29	33	0.000100840472	0.00164239829	0	750	0	0	0	0	1	-360	360;
	30	31	9.00238041e-05	0.00138972163	0	750	0	0	0	0	1	-360	360;
	30	58	9.91264281e-05	0.00139400428	0	750	0	0	0	0	1	-360	360;
	31	32	0.000109420729	0.00219486081	0	750	0	0	0	0	1	-360	360;
	32	57	9.91250154e-05	0.00126552463	0	750	0	0	0	0	1	-360	360;
	33	58	0.00011192776	0.0013640257	0	500	0	0	0	0	1	-360	360;
	33	58	9.50183178e-05	0.00129122056	0	500	0	0	0	0	1	-360	360;
	33	61	0.000104375463	0.00158672377	0	750	0	0	0	0	1	-360	360;
	34	45	0.000103300442	0.00161670236	0	750	0	0	0	0	1	-360	360;
	34	46	8.59985814e-05	0.00150535332	0	750	0	0	0	0	1	-360	360;
	35	49	9.47811892e-05	0.00135546039	0	500	0	0	0	0	1	-360	360;
	35	51	0.000110049184	0.00229764454	0	500	0	0	0	0	1	-360	360;
	36	53	8.86221061e-05	0.0015738758	0	500	0	0	0	0	1	-360	360;
	40	41	9.846752e-05	0.00103426124	0	500	0	0	0	0	1	-360	360;
	40	53	9.02575065e-05	0.00160813704	0	500	0	0	0	0	1	-360	360;
	41	42	9.02049881e-05	0.0013640257	0	500	0	0	0	0	1	-360	360;
	42	51	9.07854792e-05	0.00117987152	0	500	0	0	0	0	1	-360	360;
	45	46	0.000108231384	0.00161670236	0	750	0	0	0	0	1	-360	360;
	45	51	0.000100065651	0.00220770878	0	500	0	0	0	0	1	-360	360;
	46	47	0.000103741328	0.00116702355	0	500	0	0	0	0	1	-360	360;
	46	48	9.44480478e-05	0.00104710921	0	500	0	0	0	0	1	-360	360;
	50	56	9.87536153e-05	0.001248394	0	750	0	0	0	0	1	-360	360;
	50	57	0.000108369743	0.00142826552	0	750	0	0	0	0	1	-360	360;
	51	52	8.7125238e-05	0.001248394	0	500	0	0	0	0	1	-360	360;
	52	53	9.24148725e-05	0.00141970021	0	500	0	0	0	0	1	-360	360;
	53	54	0.000110205771	0.00104282655	0	750	0	0	0	0	1	-360	360;
	54	55	0.000116944274	0.00130835118	0	750	0	0	0	0	1	-360	360;
	56	57	9.13681172e-05	0.00125267666	0	500	0	0	0	0	1	-360	360;
	57	58	0.000104392806	0.00171948608	0	500	0	0	0	0	1	-360	360;
	57	59	8.75312196e-05	0.00174946467	0	750	0	0	0	0	1	-360	360;
];

%%-----  OPF Data  -----%%
%% generator cost data
%	1	startup	shutdown	n	x1	y1	...	xn	yn
%	2	startup	shutdown	n	c(n-1)	...	c0
mpc.gencost = [
	2	0	0	3	0.01	0.3	0.2;
	2	0	0	3	0.01	0.3	0.2;
	2	0	0	3	0.01	0.3	0.2;
	2	0	0	3	0.01	0.3	0.2;
	2	0	0	3	0.01	0.3	0.2;
	2	0	0	3	0.01	0.3	0.2;
	2	0	0	3	0.01	0.3	0.2;
	2	0	0	3	0.01	0.3	0.2;
	2	0	0	3	0.01	0.3	0.2;
	2	0	0	3	0.01	0.3	0.2;
	2	0	0	3	0.01	0.3	0.2;
	2	0	0	3	0.01	0.3	0.2;
	2	0	0	3	0.01	0.3	0.2;
	2	0	0	3	0.01	0.3	0.2;
	2	0	0	3	0.01	0.3	0.2;
	2	0	0	3	0.01	0.3	0.2;
	2	0	0	3	0.01	0.3	0.2;
	2	0	0	3	0.01	0.3	0.2;
	2	0	0	3	0.01	0.3	0.2;
	2	0	0	3	0.01	0.3	0.2;
	2	0	0	3	0.01	0.3	0.2;
	2	0	0	3	0.01	0.3	0.2;
	2	0	0	3	0.01	0.3	0.2;
	2	0	0	3	0.01	0.3	0.2;
];
